@<TRIPOS>MOLECULE
*****
   29    28     0     0     0
SMALL
USER_CHARGES

@<TRIPOS>ATOM
      1 C1         -0.8956    0.2192    2.6534 C.3       1 UNL1           nan
      2 C2         -0.5315    1.2767    1.6514 C.2       1 UNL1           nan
      3 C3         -0.3669    2.5580    2.0154 C.2       1 UNL1           nan
      4 H1         -0.1157    3.3235    1.2887 H         1 UNL1           nan
      5 C4         -0.3980    0.8416    0.2094 C.3       1 UNL1           nan
      6 H2         -1.3612    0.4282   -0.1167 H         1 UNL1           nan
      7 H3         -0.2268    1.7161   -0.4338 H         1 UNL1           nan
      8 C5          0.7205   -0.1824   -0.0235 C.3       1 UNL1           nan
      9 H4          0.5527   -1.0953    0.5590 H         1 UNL1           nan
     10 C6          0.8043   -0.5483   -1.5015 C.2       1 UNL1           nan
     11 O1          1.4777    0.0847   -2.3120 O.2       1 UNL1           nan
     12 N1          0.0003   -1.6354   -1.8154 N.am      1 UNL1           nan
     13 H5         -0.4955   -2.1196   -1.0728 H         1 UNL1           nan
     14 C7         -0.1337   -2.1503   -3.1584 C.3       1 UNL1           nan
     15 H6          0.6326   -2.9177   -3.3276 H         1 UNL1           nan
     16 H7         -1.1326   -2.5894   -3.2767 H         1 UNL1           nan
     17 H8         -0.0012   -1.3280   -3.8732 H         1 UNL1           nan
     18 N2          2.0120    0.3259    0.3643 N.am      1 UNL1           nan
     19 H9          2.1565    1.3319    0.3158 H         1 UNL1           nan
     20 C8          3.0515   -0.4842    0.7875 C.2       1 UNL1           nan
     21 O2          3.0242   -1.7051    0.8897 O.2       1 UNL1           nan
     22 C9          4.2997    0.2559    1.1374 C.3       1 UNL1           nan
     23 H10         4.3290    0.5534    2.1980 H         1 UNL1           nan
     24 H11         5.2062   -0.3504    0.9800 H         1 UNL1           nan
     25 H12         4.4710    1.1853    0.5711 H         1 UNL1           nan
     26 H13        -1.9802    0.1054    2.7550 H         1 UNL1           nan
     27 H14        -0.4898   -0.7504    2.3469 H         1 UNL1           nan
     28 H15        -0.4962    0.4676    3.6414 H         1 UNL1           nan
     29 H16        -0.4763    2.8707    3.0485 H         1 UNL1           nan
@<TRIPOS>BOND
     1    1    2 1
     2    2    3 2
     3    3    4 1
     4    2    5 1
     5    5    6 1
     6    5    7 1
     7    5    8 1
     8    8    9 1
     9    8   10 1
    10   10   11 2
    11   10   12 am
    12   12   13 1
    13   12   14 1
    14   14   15 1
    15   14   16 1
    16   14   17 1
    17    8   18 1
    18   18   19 1
    19   18   20 am
    20   20   21 2
    21   20   22 1
    22   22   23 1
    23   22   24 1
    24   22   25 1
    25    1   26 1
    26    1   27 1
    27    1   28 1
    28    3   29 1
